49
In 4.300007 3.954515 8.20094
In -2.333216 3.954515 8.20094
In 0.98339 7.271122 8.20094
In 4.300007 3.954515 1.567728
In -2.333216 3.954515 1.567728
In 0.98339 7.271122 1.567728
In 0.98339 3.954515 4.884334
In 4.300007 7.271122 4.884334
In -2.333216 7.271122 4.884334
Sb 2.641699 5.612823 6.542643
Sb -0.67491790000 5.612823 3.226026
C 5.00000 4.663524 1.0745
C 5.00000 7.499506 1.0745
C 5.00000 6.79053 2.302503
C 5.00000 5.372501 2.302503
C 5.00000 4.663524 3.530496
C 5.00000 7.499506 3.530496
C 5.00000 6.79053 4.758499
C 5.00000 5.372501 9.670501
C 5.00000 6.79053 9.670501
C 5.00000 5.372501 4.758499
C 5.00000 4.663524 5.986502
C 5.00000 7.499506 5.986502
C 5.00000 6.79053 7.214495
C 5.00000 5.372501 7.214495
C 5.00000 4.663524 8.442498
C 5.00000 7.499506 8.442498
C 5.00000 3.245496 1.0745
C 5.00000 3.245496 3.530496
C 5.00000 3.245496 5.986502
C -2.69999600008 4.663524 1.0745
C -2.69999600008 7.499506 1.0745
C -2.69999600008 6.79053 2.302503
C -2.69999600008 5.372501 2.302503
C -2.69999600008 4.663524 3.530496
C -2.69999600008 7.499506 3.530496
C -2.69999600008 6.79053 4.758499
C -2.69999600008 5.372501 9.670501
C -2.69999600008 6.79053 9.670501
C -2.69999600008 5.372501 4.758499
C -2.69999600008 4.663524 5.986502
C -2.69999600008 7.499506 5.986502
C -2.69999600008 6.79053 7.214495
C -2.69999600008 5.372501 7.214495
C -2.69999600008 4.663524 8.442498
C -2.69999600008 7.499506 8.442498
C -2.69999600008 3.245496 1.0745
C -2.69999600008 3.245496 3.530496
C -2.69999600008 3.245496 5.986502
